### 
### Created by X-TOOL on Fri Sep 26 17:34:14 2014
### 

@<TRIPOS>MOLECULE
1a0t_ligand
   90    92     1     0     0
SMALL
GAST_HUCK


@<TRIPOS>ATOM
      1 C1        -44.9520  -14.6450  -14.2580 C.3       1 SUC         0.1912
      2 C2        -43.9740  -15.8130  -14.4360 C.3       1 SUC         0.1342
      3 C3        -44.3250  -16.9490  -13.4760 C.3       1 SUC         0.1141
      4 C4        -44.2860  -16.4420  -12.0850 C.3       1 SUC         0.1119
      5 C5        -45.2770  -15.3040  -11.9210 C.3       1 SUC         0.1130
      6 C6        -45.2450  -14.7580  -10.5290 C.3       1 SUC         0.0730
      7 O1        -46.2730  -15.0610  -14.6480 O.3       1 SUC        -0.3125
      8 O2        -43.9850  -16.2330  -15.8010 O.3       1 SUC        -0.3841
      9 O3        -43.3750  -17.9870  -13.6420 O.3       1 SUC        -0.3864
     10 O4        -44.6130  -17.5380  -11.1870 O.3       1 SUC        -0.3865
     11 O5        -44.9180  -14.2440  -12.8600 O.3       1 SUC        -0.3404
     12 O6        -46.1150  -15.5190   -9.6790 O.3       1 SUC        -0.3924
     13 C1'       -47.2710  -13.5190  -16.2880 C.3       1 SUC         0.1009
     14 C2'       -47.2900  -14.0250  -14.8500 C.3       1 SUC         0.2252
     15 C3'       -48.6560  -14.5810  -14.3610 C.3       1 SUC         0.1395
     16 C4'       -48.6700  -14.1750  -12.9030 C.3       1 SUC         0.1145
     17 C5'       -48.0640  -12.7740  -13.0260 C.3       1 SUC         0.1134
     18 C6'       -47.5100  -12.1450  -11.7790 C.3       1 SUC         0.0730
     19 O1'       -48.4900  -12.8180  -16.5360 O.3       1 SUC        -0.3896
     20 O2'       -47.0210  -12.9340  -14.0020 O.3       1 SUC        -0.3362
     21 O3'       -48.8650  -15.9510  -14.6060 O.3       1 SUC        -0.3837
     22 O4'       -50.0050  -14.1820  -12.3880 O.3       1 SUC        -0.3864
     23 O6'       -47.9020  -12.8310  -10.6210 O.3       1 SUC        -0.3924
     24 C1        -45.5260  -17.2000   -6.3010 C.3       1 SUC         0.1912
     25 C2        -45.5170  -18.2070   -7.4250 C.3       1 SUC         0.1342
     26 C3        -46.8810  -18.8540   -7.5510 C.3       1 SUC         0.1141
     27 C4        -47.2220  -19.5010   -6.2430 C.3       1 SUC         0.1119
     28 C5        -47.2510  -18.4590   -5.1420 C.3       1 SUC         0.1130
     29 C6        -47.5690  -19.0590   -3.8150 C.3       1 SUC         0.0730
     30 O1        -46.4190  -16.1690   -6.6350 O.3       1 SUC        -0.3125
     31 O2        -45.1250  -17.5580   -8.6220 O.3       1 SUC        -0.3841
     32 O3        -46.7990  -19.8110   -8.6000 O.3       1 SUC        -0.3864
     33 O4        -48.4960  -20.1040   -6.3520 O.3       1 SUC        -0.3865
     34 O5        -45.9280  -17.8470   -5.0700 O.3       1 SUC        -0.3404
     35 O6        -48.1690  -18.0990   -2.9760 O.3       1 SUC        -0.3924
     36 C1'       -44.6970  -14.4570   -6.5880 C.3       1 SUC         0.1009
     37 C2'       -46.0930  -14.8910   -6.1010 C.3       1 SUC         0.2252
     38 C3'       -47.2560  -13.9460   -6.4510 C.3       1 SUC         0.1395
     39 C4'       -48.1760  -14.0770   -5.2590 C.3       1 SUC         0.1145
     40 C5'       -47.1680  -14.2090   -4.1260 C.3       1 SUC         0.1134
     41 C6'       -47.6830  -14.8330   -2.8470 C.3       1 SUC         0.0730
     42 O1'       -44.3590  -13.1970   -6.0240 O.3       1 SUC        -0.3896
     43 O2'       -46.0950  -14.9910   -4.6940 O.3       1 SUC        -0.3362
     44 O3'       -47.8630  -14.2100   -7.7010 O.3       1 SUC        -0.3837
     45 O4'       -48.9920  -12.9130   -5.1140 O.3       1 SUC        -0.3864
     46 O6'       -46.6370  -15.2210   -1.9670 O.3       1 SUC        -0.3924
     47 H1        -44.6402  -13.7994  -14.8886 H         1 SUC         0.0939
     48 H2        -42.9602  -15.4626  -14.1923 H         1 SUC         0.0671
     49 H3        -45.3323  -17.3297  -13.7004 H         1 SUC         0.0648
     50 H4        -43.2750  -16.0734  -11.8571 H         1 SUC         0.0647
     51 H5        -46.2907  -15.6689  -12.1427 H         1 SUC         0.0647
     52 H6        -45.5760  -13.7091  -10.5422 H         1 SUC         0.0584
     53 H7        -44.2175  -14.8134  -10.1403 H         1 SUC         0.0584
     54 H8        -43.7622  -15.4981  -16.3602 H         1 SUC         0.2101
     55 H9        -43.4072  -18.3057  -14.5364 H         1 SUC         0.2100
     56 H10       -43.9839  -18.2404  -11.3025 H         1 SUC         0.2100
     57 H11       -46.0871  -15.1641   -8.7982 H         1 SUC         0.2095
     58 H12       -47.1845  -14.3697  -16.9799 H         1 SUC         0.0612
     59 H13       -46.4169  -12.8410  -16.4319 H         1 SUC         0.0612
     60 H14       -49.4632  -14.0473  -14.8840 H         1 SUC         0.0675
     61 H15       -48.0401  -14.8320  -12.2853 H         1 SUC         0.0648
     62 H16       -48.8381  -12.0959  -13.4145 H         1 SUC         0.0647
     63 H17       -47.8703  -11.1077  -11.7153 H         1 SUC         0.0584
     64 H18       -46.4116  -12.1487  -11.8382 H         1 SUC         0.0584
     65 H19       -48.4938  -12.4957  -17.4297 H         1 SUC         0.2096
     66 H20       -48.8400  -16.1127  -15.5418 H         1 SUC         0.2101
     67 H21       -50.3201  -15.0768  -12.3372 H         1 SUC         0.2100
     68 H22       -47.5318  -12.4023   -9.8584 H         1 SUC         0.2095
     69 H23       -44.5169  -16.7810   -6.1742 H         1 SUC         0.0939
     70 H24       -44.7813  -18.9919   -7.1956 H         1 SUC         0.0671
     71 H25       -47.6418  -18.0983   -7.7963 H         1 SUC         0.0648
     72 H26       -46.4692  -20.2663   -6.0032 H         1 SUC         0.0647
     73 H27       -48.0056  -17.6959   -5.3834 H         1 SUC         0.0647
     74 H28       -46.6408  -19.4198   -3.3479 H         1 SUC         0.0584
     75 H29       -48.2612  -19.9024   -3.9545 H         1 SUC         0.0584
     76 H30       -44.2677  -17.1661   -8.5036 H         1 SUC         0.2101
     77 H31       -46.5820  -19.3712   -9.4136 H         1 SUC         0.2100
     78 H32       -48.4792  -20.7572   -7.0416 H         1 SUC         0.2100
     79 H33       -48.3666  -18.4932   -2.1345 H         1 SUC         0.2095
     80 H34       -44.7020  -14.3762   -7.6850 H         1 SUC         0.0612
     81 H35       -43.9534  -15.2064   -6.2789 H         1 SUC         0.0612
     82 H36       -46.8770  -12.9143   -6.4954 H         1 SUC         0.0675
     83 H37       -48.8161  -14.9683   -5.3350 H         1 SUC         0.0648
     84 H38       -46.7961  -13.2057   -3.8710 H         1 SUC         0.0647
     85 H39       -48.2757  -15.7235   -3.1035 H         1 SUC         0.0584
     86 H40       -48.3235  -14.1021   -2.3317 H         1 SUC         0.0584
     87 H41       -43.4979  -12.9349   -6.3277 H         1 SUC         0.2096
     88 H42       -47.2206  -14.1063   -8.3931 H         1 SUC         0.2101
     89 H43       -49.6063  -12.8649   -5.8370 H         1 SUC         0.2100
     90 H44       -47.0097  -15.6055   -1.1823 H         1 SUC         0.2095
@<TRIPOS>BOND
     1    1    2 1  
     2    1    7 1  
     3    1   11 1  
     4    2    3 1  
     5    2    8 1  
     6    3    4 1  
     7    3    9 1  
     8    4    5 1  
     9    4   10 1  
    10    5    6 1  
    11    5   11 1  
    12    6   12 1  
    13    7   14 1  
    14   14   13 1  
    15   13   19 1  
    16   14   15 1  
    17   14   20 1  
    18   15   16 1  
    19   15   21 1  
    20   16   17 1  
    21   16   22 1  
    22   17   18 1  
    23   17   20 1  
    24   18   23 1  
    25   24   25 1  
    26   24   30 1  
    27   24   34 1  
    28   25   26 1  
    29   25   31 1  
    30   26   27 1  
    31   26   32 1  
    32   27   28 1  
    33   27   33 1  
    34   28   29 1  
    35   28   34 1  
    36   29   35 1  
    37   30   37 1  
    38   37   36 1  
    39   36   42 1  
    40   37   38 1  
    41   37   43 1  
    42   38   39 1  
    43   38   44 1  
    44   39   40 1  
    45   39   45 1  
    46   40   41 1  
    47   40   43 1  
    48   41   46 1  
    49    1   47 1  
    50    2   48 1  
    51    3   49 1  
    52    4   50 1  
    53    5   51 1  
    54    6   52 1  
    55    6   53 1  
    56    8   54 1  
    57    9   55 1  
    58   10   56 1  
    59   12   57 1  
    60   13   58 1  
    61   13   59 1  
    62   15   60 1  
    63   16   61 1  
    64   17   62 1  
    65   18   63 1  
    66   18   64 1  
    67   19   65 1  
    68   21   66 1  
    69   22   67 1  
    70   23   68 1  
    71   24   69 1  
    72   25   70 1  
    73   26   71 1  
    74   27   72 1  
    75   28   73 1  
    76   29   74 1  
    77   29   75 1  
    78   31   76 1  
    79   32   77 1  
    80   33   78 1  
    81   35   79 1  
    82   36   80 1  
    83   36   81 1  
    84   38   82 1  
    85   39   83 1  
    86   40   84 1  
    87   41   85 1  
    88   41   86 1  
    89   42   87 1  
    90   44   88 1  
    91   45   89 1  
    92   46   90 1  
@<TRIPOS>SUBSTRUCTURE
     1 SUC         1

